CT1001084283_Deg-180
     RDKit          3D

  4  3  0  0  0  0  0  0  0  0999 V2000
   -0.0187    1.5258    0.0104 C   0  0  0  0  0  0  0  0  0  0  0  0
    0.0021   -0.0041    0.0020 C   0  0  0  0  0  0  0  0  0  0  0  0
   -1.4333   -0.5336    0.0129 C   0  0  0  0  0  0  0  0  0  0  0  0
   -1.4139   -1.9625    0.0051 O   0  0  0  0  0  0  0  0  0  0  0  0
  1  2  1  0
  2  3  1  0
  3  4  1  0
M  END
>  <Torsion_Angle>  (1) 
-180

>  <Psi4_Energy (kcal/mol)>  (1) 
-118011.007026

>  <Psi4_Relative_Energy (kcal/mol)>  (1) 
0.000000

$$$$
CT1001084283_Deg-170
     RDKit          3D

  4  3  0  0  0  0  0  0  0  0999 V2000
   -0.0187    1.5258    0.0104 C   0  0  0  0  0  0  0  0  0  0  0  0
    0.0021   -0.0041    0.0020 C   0  0  0  0  0  0  0  0  0  0  0  0
   -1.4333   -0.5336    0.0129 C   0  0  0  0  0  0  0  0  0  0  0  0
   -1.4187   -1.9446    0.2392 O   0  0  0  0  0  0  0  0  0  0  0  0
  1  2  1  0
  2  3  1  0
  3  4  1  0
M  END
>  <Torsion_Angle>  (2) 
-170

>  <Psi4_Energy (kcal/mol)>  (2) 
-118011.003870

>  <Psi4_Relative_Energy (kcal/mol)>  (2) 
0.003156

$$$$
CT1001084283_Deg-160
     RDKit          3D

  4  3  0  0  0  0  0  0  0  0999 V2000
   -0.0187    1.5258    0.0104 C   0  0  0  0  0  0  0  0  0  0  0  0
    0.0021   -0.0041    0.0020 C   0  0  0  0  0  0  0  0  0  0  0  0
   -1.4333   -0.5336    0.0129 C   0  0  0  0  0  0  0  0  0  0  0  0
   -1.4376   -1.8887    0.4665 O   0  0  0  0  0  0  0  0  0  0  0  0
  1  2  1  0
  2  3  1  0
  3  4  1  0
M  END
>  <Torsion_Angle>  (3) 
-160

>  <Psi4_Energy (kcal/mol)>  (3) 
-118010.980214

>  <Psi4_Relative_Energy (kcal/mol)>  (3) 
0.026812

$$$$
CT1001084283_Deg-150
     RDKit          3D

  4  3  0  0  0  0  0  0  0  0999 V2000
   -0.0187    1.5258    0.0104 C   0  0  0  0  0  0  0  0  0  0  0  0
    0.0021   -0.0041    0.0020 C   0  0  0  0  0  0  0  0  0  0  0  0
   -1.4333   -0.5336    0.0129 C   0  0  0  0  0  0  0  0  0  0  0  0
   -1.4699   -1.7968    0.6802 O   0  0  0  0  0  0  0  0  0  0  0  0
  1  2  1  0
  2  3  1  0
  3  4  1  0
M  END
>  <Torsion_Angle>  (4) 
-150

>  <Psi4_Energy (kcal/mol)>  (4) 
-118010.895216

>  <Psi4_Relative_Energy (kcal/mol)>  (4) 
0.111810

$$$$
CT1001084283_Deg-140
     RDKit          3D

  4  3  0  0  0  0  0  0  0  0999 V2000
   -0.0187    1.5258    0.0104 C   0  0  0  0  0  0  0  0  0  0  0  0
    0.0021   -0.0041    0.0020 C   0  0  0  0  0  0  0  0  0  0  0  0
   -1.4333   -0.5336    0.0129 C   0  0  0  0  0  0  0  0  0  0  0  0
   -1.5147   -1.6714    0.8737 O   0  0  0  0  0  0  0  0  0  0  0  0
  1  2  1  0
  2  3  1  0
  3  4  1  0
M  END
>  <Torsion_Angle>  (5) 
-140

>  <Psi4_Energy (kcal/mol)>  (5) 
-118010.685804

>  <Psi4_Relative_Energy (kcal/mol)>  (5) 
0.321222

$$$$
CT1001084283_Deg-130
     RDKit          3D

  4  3  0  0  0  0  0  0  0  0999 V2000
   -0.0187    1.5258    0.0104 C   0  0  0  0  0  0  0  0  0  0  0  0
    0.0021   -0.0041    0.0020 C   0  0  0  0  0  0  0  0  0  0  0  0
   -1.4333   -0.5336    0.0129 C   0  0  0  0  0  0  0  0  0  0  0  0
   -1.5706   -1.5165    1.0411 O   0  0  0  0  0  0  0  0  0  0  0  0
  1  2  1  0
  2  3  1  0
  3  4  1  0
M  END
>  <Torsion_Angle>  (6) 
-130

>  <Psi4_Energy (kcal/mol)>  (6) 
-118010.273048

>  <Psi4_Relative_Energy (kcal/mol)>  (6) 
0.733978

$$$$
CT1001084283_Deg-120
     RDKit          3D

  4  3  0  0  0  0  0  0  0  0999 V2000
   -0.0187    1.5258    0.0104 C   0  0  0  0  0  0  0  0  0  0  0  0
    0.0021   -0.0041    0.0020 C   0  0  0  0  0  0  0  0  0  0  0  0
   -1.4333   -0.5336    0.0129 C   0  0  0  0  0  0  0  0  0  0  0  0
   -1.6358   -1.3367    1.1774 O   0  0  0  0  0  0  0  0  0  0  0  0
  1  2  1  0
  2  3  1  0
  3  4  1  0
M  END
>  <Torsion_Angle>  (7) 
-120

>  <Psi4_Energy (kcal/mol)>  (7) 
-118009.570447

>  <Psi4_Relative_Energy (kcal/mol)>  (7) 
1.436579

$$$$
CT1001084283_Deg-110
     RDKit          3D

  4  3  0  0  0  0  0  0  0  0999 V2000
   -0.0187    1.5258    0.0104 C   0  0  0  0  0  0  0  0  0  0  0  0
    0.0021   -0.0041    0.0020 C   0  0  0  0  0  0  0  0  0  0  0  0
   -1.4333   -0.5336    0.0129 C   0  0  0  0  0  0  0  0  0  0  0  0
   -1.7085   -1.1376    1.2785 O   0  0  0  0  0  0  0  0  0  0  0  0
  1  2  1  0
  2  3  1  0
  3  4  1  0
M  END
>  <Torsion_Angle>  (8) 
-110

>  <Psi4_Energy (kcal/mol)>  (8) 
-118008.493998

>  <Psi4_Relative_Energy (kcal/mol)>  (8) 
2.513028

$$$$
CT1001084283_Deg-100
     RDKit          3D

  4  3  0  0  0  0  0  0  0  0999 V2000
   -0.0187    1.5258    0.0104 C   0  0  0  0  0  0  0  0  0  0  0  0
    0.0021   -0.0041    0.0020 C   0  0  0  0  0  0  0  0  0  0  0  0
   -1.4333   -0.5336    0.0129 C   0  0  0  0  0  0  0  0  0  0  0  0
   -1.7865   -0.9250    1.3411 O   0  0  0  0  0  0  0  0  0  0  0  0
  1  2  1  0
  2  3  1  0
  3  4  1  0
M  END
>  <Torsion_Angle>  (9) 
-100

>  <Psi4_Energy (kcal/mol)>  (9) 
-118006.973642

>  <Psi4_Relative_Energy (kcal/mol)>  (9) 
4.033385

$$$$
CT1001084283_Deg-90
     RDKit          3D

  4  3  0  0  0  0  0  0  0  0999 V2000
   -0.0187    1.5258    0.0104 C   0  0  0  0  0  0  0  0  0  0  0  0
    0.0021   -0.0041    0.0020 C   0  0  0  0  0  0  0  0  0  0  0  0
   -1.4333   -0.5336    0.0129 C   0  0  0  0  0  0  0  0  0  0  0  0
   -1.8672   -0.7056    1.3636 O   0  0  0  0  0  0  0  0  0  0  0  0
  1  2  1  0
  2  3  1  0
  3  4  1  0
M  END
>  <Torsion_Angle>  (10) 
-90

>  <Psi4_Energy (kcal/mol)>  (10) 
-118004.966771

>  <Psi4_Relative_Energy (kcal/mol)>  (10) 
6.040255

$$$$
CT1001084283_Deg-80
     RDKit          3D

  4  3  0  0  0  0  0  0  0  0999 V2000
   -0.0187    1.5258    0.0104 C   0  0  0  0  0  0  0  0  0  0  0  0
    0.0021   -0.0041    0.0020 C   0  0  0  0  0  0  0  0  0  0  0  0
   -1.4333   -0.5336    0.0129 C   0  0  0  0  0  0  0  0  0  0  0  0
   -1.9484   -0.4860    1.3451 O   0  0  0  0  0  0  0  0  0  0  0  0
  1  2  1  0
  2  3  1  0
  3  4  1  0
M  END
>  <Torsion_Angle>  (11) 
-80

>  <Psi4_Energy (kcal/mol)>  (11) 
-118002.478018

>  <Psi4_Relative_Energy (kcal/mol)>  (11) 
8.529008

$$$$
CT1001084283_Deg-70
     RDKit          3D

  4  3  0  0  0  0  0  0  0  0999 V2000
   -0.0187    1.5258    0.0104 C   0  0  0  0  0  0  0  0  0  0  0  0
    0.0021   -0.0041    0.0020 C   0  0  0  0  0  0  0  0  0  0  0  0
   -1.4333   -0.5336    0.0129 C   0  0  0  0  0  0  0  0  0  0  0  0
   -2.0275   -0.2729    1.2862 O   0  0  0  0  0  0  0  0  0  0  0  0
  1  2  1  0
  2  3  1  0
  3  4  1  0
M  END
>  <Torsion_Angle>  (12) 
-70

>  <Psi4_Energy (kcal/mol)>  (12) 
-117999.591644

>  <Psi4_Relative_Energy (kcal/mol)>  (12) 
11.415382

$$$$
CT1001084283_Deg-60
     RDKit          3D

  4  3  0  0  0  0  0  0  0  0999 V2000
   -0.0187    1.5258    0.0104 C   0  0  0  0  0  0  0  0  0  0  0  0
    0.0021   -0.0041    0.0020 C   0  0  0  0  0  0  0  0  0  0  0  0
   -1.4333   -0.5336    0.0129 C   0  0  0  0  0  0  0  0  0  0  0  0
   -2.1021   -0.0726    1.1887 O   0  0  0  0  0  0  0  0  0  0  0  0
  1  2  1  0
  2  3  1  0
  3  4  1  0
M  END
>  <Torsion_Angle>  (13) 
-60

>  <Psi4_Energy (kcal/mol)>  (13) 
-117996.513869

>  <Psi4_Relative_Energy (kcal/mol)>  (13) 
14.493157

$$$$
CT1001084283_Deg-50
     RDKit          3D

  4  3  0  0  0  0  0  0  0  0999 V2000
   -0.0187    1.5258    0.0104 C   0  0  0  0  0  0  0  0  0  0  0  0
    0.0021   -0.0041    0.0020 C   0  0  0  0  0  0  0  0  0  0  0  0
   -1.4333   -0.5336    0.0129 C   0  0  0  0  0  0  0  0  0  0  0  0
   -2.1699    0.1086    1.0556 O   0  0  0  0  0  0  0  0  0  0  0  0
  1  2  1  0
  2  3  1  0
  3  4  1  0
M  END
>  <Torsion_Angle>  (14) 
-50

>  <Psi4_Energy (kcal/mol)>  (14) 
-117993.585669

>  <Psi4_Relative_Energy (kcal/mol)>  (14) 
17.421357

$$$$
CT1001084283_Deg-40
     RDKit          3D

  4  3  0  0  0  0  0  0  0  0999 V2000
   -0.0187    1.5258    0.0104 C   0  0  0  0  0  0  0  0  0  0  0  0
    0.0021   -0.0041    0.0020 C   0  0  0  0  0  0  0  0  0  0  0  0
   -1.4333   -0.5336    0.0129 C   0  0  0  0  0  0  0  0  0  0  0  0
   -2.2290    0.2653    0.8909 O   0  0  0  0  0  0  0  0  0  0  0  0
  1  2  1  0
  2  3  1  0
  3  4  1  0
M  END
>  <Torsion_Angle>  (15) 
-40

>  <Psi4_Energy (kcal/mol)>  (15) 
-117991.157145

>  <Psi4_Relative_Energy (kcal/mol)>  (15) 
19.849882

$$$$
CT1001084283_Deg-30
     RDKit          3D

  4  3  0  0  0  0  0  0  0  0999 V2000
   -0.0187    1.5258    0.0104 C   0  0  0  0  0  0  0  0  0  0  0  0
    0.0021   -0.0041    0.0020 C   0  0  0  0  0  0  0  0  0  0  0  0
   -1.4333   -0.5336    0.0129 C   0  0  0  0  0  0  0  0  0  0  0  0
   -2.2774    0.3927    0.6997 O   0  0  0  0  0  0  0  0  0  0  0  0
  1  2  1  0
  2  3  1  0
  3  4  1  0
M  END
>  <Torsion_Angle>  (16) 
-30

>  <Psi4_Energy (kcal/mol)>  (16) 
-117989.366989

>  <Psi4_Relative_Energy (kcal/mol)>  (16) 
21.640037

$$$$
CT1001084283_Deg-20
     RDKit          3D

  4  3  0  0  0  0  0  0  0  0999 V2000
   -0.0187    1.5258    0.0104 C   0  0  0  0  0  0  0  0  0  0  0  0
    0.0021   -0.0041    0.0020 C   0  0  0  0  0  0  0  0  0  0  0  0
   -1.4333   -0.5336    0.0129 C   0  0  0  0  0  0  0  0  0  0  0  0
   -2.3138    0.4869    0.4876 O   0  0  0  0  0  0  0  0  0  0  0  0
  1  2  1  0
  2  3  1  0
  3  4  1  0
M  END
>  <Torsion_Angle>  (17) 
-20

>  <Psi4_Energy (kcal/mol)>  (17) 
-117988.139519

>  <Psi4_Relative_Energy (kcal/mol)>  (17) 
22.867507

$$$$
CT1001084283_Deg-10
     RDKit          3D

  4  3  0  0  0  0  0  0  0  0999 V2000
   -0.0187    1.5258    0.0104 C   0  0  0  0  0  0  0  0  0  0  0  0
    0.0021   -0.0041    0.0020 C   0  0  0  0  0  0  0  0  0  0  0  0
   -1.4333   -0.5336    0.0129 C   0  0  0  0  0  0  0  0  0  0  0  0
   -2.3370    0.5452    0.2613 O   0  0  0  0  0  0  0  0  0  0  0  0
  1  2  1  0
  2  3  1  0
  3  4  1  0
M  END
>  <Torsion_Angle>  (18) 
-10

>  <Psi4_Energy (kcal/mol)>  (18) 
-117987.384808

>  <Psi4_Relative_Energy (kcal/mol)>  (18) 
23.622218

$$$$
CT1001084283_Deg0
     RDKit          3D

  4  3  0  0  0  0  0  0  0  0999 V2000
   -0.0187    1.5258    0.0104 C   0  0  0  0  0  0  0  0  0  0  0  0
    0.0021   -0.0041    0.0020 C   0  0  0  0  0  0  0  0  0  0  0  0
   -1.4333   -0.5336    0.0129 C   0  0  0  0  0  0  0  0  0  0  0  0
   -2.3463    0.5657    0.0275 O   0  0  0  0  0  0  0  0  0  0  0  0
  1  2  1  0
  2  3  1  0
  3  4  1  0
M  END
>  <Torsion_Angle>  (19) 
0

>  <Psi4_Energy (kcal/mol)>  (19) 
-117987.119007

>  <Psi4_Relative_Energy (kcal/mol)>  (19) 
23.888019

$$$$
CT1001084283_Deg10
     RDKit          3D

  4  3  0  0  0  0  0  0  0  0999 V2000
   -0.0187    1.5258    0.0104 C   0  0  0  0  0  0  0  0  0  0  0  0
    0.0021   -0.0041    0.0020 C   0  0  0  0  0  0  0  0  0  0  0  0
   -1.4333   -0.5336    0.0129 C   0  0  0  0  0  0  0  0  0  0  0  0
   -2.3415    0.5477   -0.2066 O   0  0  0  0  0  0  0  0  0  0  0  0
  1  2  1  0
  2  3  1  0
  3  4  1  0
M  END
>  <Torsion_Angle>  (20) 
10

>  <Psi4_Energy (kcal/mol)>  (20) 
-117987.384808

>  <Psi4_Relative_Energy (kcal/mol)>  (20) 
23.622218

$$$$
CT1001084283_Deg20
     RDKit          3D

  4  3  0  0  0  0  0  0  0  0999 V2000
   -0.0187    1.5258    0.0104 C   0  0  0  0  0  0  0  0  0  0  0  0
    0.0021   -0.0041    0.0020 C   0  0  0  0  0  0  0  0  0  0  0  0
   -1.4333   -0.5336    0.0129 C   0  0  0  0  0  0  0  0  0  0  0  0
   -2.3226    0.4919   -0.4339 O   0  0  0  0  0  0  0  0  0  0  0  0
  1  2  1  0
  2  3  1  0
  3  4  1  0
M  END
>  <Torsion_Angle>  (21) 
20

>  <Psi4_Energy (kcal/mol)>  (21) 
-117988.139519

>  <Psi4_Relative_Energy (kcal/mol)>  (21) 
22.867507

$$$$
CT1001084283_Deg30
     RDKit          3D

  4  3  0  0  0  0  0  0  0  0999 V2000
   -0.0187    1.5258    0.0104 C   0  0  0  0  0  0  0  0  0  0  0  0
    0.0021   -0.0041    0.0020 C   0  0  0  0  0  0  0  0  0  0  0  0
   -1.4333   -0.5336    0.0129 C   0  0  0  0  0  0  0  0  0  0  0  0
   -2.2903    0.3999   -0.6476 O   0  0  0  0  0  0  0  0  0  0  0  0
  1  2  1  0
  2  3  1  0
  3  4  1  0
M  END
>  <Torsion_Angle>  (22) 
30

>  <Psi4_Energy (kcal/mol)>  (22) 
-117989.366989

>  <Psi4_Relative_Energy (kcal/mol)>  (22) 
21.640037

$$$$
CT1001084283_Deg40
     RDKit          3D

  4  3  0  0  0  0  0  0  0  0999 V2000
   -0.0187    1.5258    0.0104 C   0  0  0  0  0  0  0  0  0  0  0  0
    0.0021   -0.0041    0.0020 C   0  0  0  0  0  0  0  0  0  0  0  0
   -1.4333   -0.5336    0.0129 C   0  0  0  0  0  0  0  0  0  0  0  0
   -2.2455    0.2746   -0.8411 O   0  0  0  0  0  0  0  0  0  0  0  0
  1  2  1  0
  2  3  1  0
  3  4  1  0
M  END
>  <Torsion_Angle>  (23) 
40

>  <Psi4_Energy (kcal/mol)>  (23) 
-117991.157144

>  <Psi4_Relative_Energy (kcal/mol)>  (23) 
19.849882

$$$$
CT1001084283_Deg50
     RDKit          3D

  4  3  0  0  0  0  0  0  0  0999 V2000
   -0.0187    1.5258    0.0104 C   0  0  0  0  0  0  0  0  0  0  0  0
    0.0021   -0.0041    0.0020 C   0  0  0  0  0  0  0  0  0  0  0  0
   -1.4333   -0.5336    0.0129 C   0  0  0  0  0  0  0  0  0  0  0  0
   -2.1897    0.1196   -1.0086 O   0  0  0  0  0  0  0  0  0  0  0  0
  1  2  1  0
  2  3  1  0
  3  4  1  0
M  END
>  <Torsion_Angle>  (24) 
50

>  <Psi4_Energy (kcal/mol)>  (24) 
-117993.585669

>  <Psi4_Relative_Energy (kcal/mol)>  (24) 
17.421357

$$$$
CT1001084283_Deg60
     RDKit          3D

  4  3  0  0  0  0  0  0  0  0999 V2000
   -0.0187    1.5258    0.0104 C   0  0  0  0  0  0  0  0  0  0  0  0
    0.0021   -0.0041    0.0020 C   0  0  0  0  0  0  0  0  0  0  0  0
   -1.4333   -0.5336    0.0129 C   0  0  0  0  0  0  0  0  0  0  0  0
   -2.1244   -0.0601   -1.1449 O   0  0  0  0  0  0  0  0  0  0  0  0
  1  2  1  0
  2  3  1  0
  3  4  1  0
M  END
>  <Torsion_Angle>  (25) 
60

>  <Psi4_Energy (kcal/mol)>  (25) 
-117996.513869

>  <Psi4_Relative_Energy (kcal/mol)>  (25) 
14.493157

$$$$
CT1001084283_Deg70
     RDKit          3D

  4  3  0  0  0  0  0  0  0  0999 V2000
   -0.0187    1.5258    0.0104 C   0  0  0  0  0  0  0  0  0  0  0  0
    0.0021   -0.0041    0.0020 C   0  0  0  0  0  0  0  0  0  0  0  0
   -1.4333   -0.5336    0.0129 C   0  0  0  0  0  0  0  0  0  0  0  0
   -2.0517   -0.2593   -1.2459 O   0  0  0  0  0  0  0  0  0  0  0  0
  1  2  1  0
  2  3  1  0
  3  4  1  0
M  END
>  <Torsion_Angle>  (26) 
70

>  <Psi4_Energy (kcal/mol)>  (26) 
-117999.591644

>  <Psi4_Relative_Energy (kcal/mol)>  (26) 
11.415382

$$$$
CT1001084283_Deg80
     RDKit          3D

  4  3  0  0  0  0  0  0  0  0999 V2000
   -0.0187    1.5258    0.0104 C   0  0  0  0  0  0  0  0  0  0  0  0
    0.0021   -0.0041    0.0020 C   0  0  0  0  0  0  0  0  0  0  0  0
   -1.4333   -0.5336    0.0129 C   0  0  0  0  0  0  0  0  0  0  0  0
   -1.9738   -0.4718   -1.3086 O   0  0  0  0  0  0  0  0  0  0  0  0
  1  2  1  0
  2  3  1  0
  3  4  1  0
M  END
>  <Torsion_Angle>  (27) 
80

>  <Psi4_Energy (kcal/mol)>  (27) 
-118002.478018

>  <Psi4_Relative_Energy (kcal/mol)>  (27) 
8.529008

$$$$
CT1001084283_Deg90
     RDKit          3D

  4  3  0  0  0  0  0  0  0  0999 V2000
   -0.0187    1.5258    0.0104 C   0  0  0  0  0  0  0  0  0  0  0  0
    0.0021   -0.0041    0.0020 C   0  0  0  0  0  0  0  0  0  0  0  0
   -1.4333   -0.5336    0.0129 C   0  0  0  0  0  0  0  0  0  0  0  0
   -1.8930   -0.6912   -1.3310 O   0  0  0  0  0  0  0  0  0  0  0  0
  1  2  1  0
  2  3  1  0
  3  4  1  0
M  END
>  <Torsion_Angle>  (28) 
90

>  <Psi4_Energy (kcal/mol)>  (28) 
-118004.966771

>  <Psi4_Relative_Energy (kcal/mol)>  (28) 
6.040255

$$$$
CT1001084283_Deg100
     RDKit          3D

  4  3  0  0  0  0  0  0  0  0999 V2000
   -0.0187    1.5258    0.0104 C   0  0  0  0  0  0  0  0  0  0  0  0
    0.0021   -0.0041    0.0020 C   0  0  0  0  0  0  0  0  0  0  0  0
   -1.4333   -0.5336    0.0129 C   0  0  0  0  0  0  0  0  0  0  0  0
   -1.8119   -0.9108   -1.3125 O   0  0  0  0  0  0  0  0  0  0  0  0
  1  2  1  0
  2  3  1  0
  3  4  1  0
M  END
>  <Torsion_Angle>  (29) 
100

>  <Psi4_Energy (kcal/mol)>  (29) 
-118006.973642

>  <Psi4_Relative_Energy (kcal/mol)>  (29) 
4.033384

$$$$
CT1001084283_Deg110
     RDKit          3D

  4  3  0  0  0  0  0  0  0  0999 V2000
   -0.0187    1.5258    0.0104 C   0  0  0  0  0  0  0  0  0  0  0  0
    0.0021   -0.0041    0.0020 C   0  0  0  0  0  0  0  0  0  0  0  0
   -1.4333   -0.5336    0.0129 C   0  0  0  0  0  0  0  0  0  0  0  0
   -1.7328   -1.1240   -1.2536 O   0  0  0  0  0  0  0  0  0  0  0  0
  1  2  1  0
  2  3  1  0
  3  4  1  0
M  END
>  <Torsion_Angle>  (30) 
110

>  <Psi4_Energy (kcal/mol)>  (30) 
-118008.493998

>  <Psi4_Relative_Energy (kcal/mol)>  (30) 
2.513028

$$$$
CT1001084283_Deg120
     RDKit          3D

  4  3  0  0  0  0  0  0  0  0999 V2000
   -0.0187    1.5258    0.0104 C   0  0  0  0  0  0  0  0  0  0  0  0
    0.0021   -0.0041    0.0020 C   0  0  0  0  0  0  0  0  0  0  0  0
   -1.4333   -0.5336    0.0129 C   0  0  0  0  0  0  0  0  0  0  0  0
   -1.6582   -1.3242   -1.1561 O   0  0  0  0  0  0  0  0  0  0  0  0
  1  2  1  0
  2  3  1  0
  3  4  1  0
M  END
>  <Torsion_Angle>  (31) 
120

>  <Psi4_Energy (kcal/mol)>  (31) 
-118009.570447

>  <Psi4_Relative_Energy (kcal/mol)>  (31) 
1.436579

$$$$
CT1001084283_Deg130
     RDKit          3D

  4  3  0  0  0  0  0  0  0  0999 V2000
   -0.0187    1.5258    0.0104 C   0  0  0  0  0  0  0  0  0  0  0  0
    0.0021   -0.0041    0.0020 C   0  0  0  0  0  0  0  0  0  0  0  0
   -1.4333   -0.5336    0.0129 C   0  0  0  0  0  0  0  0  0  0  0  0
   -1.5903   -1.5054   -1.0230 O   0  0  0  0  0  0  0  0  0  0  0  0
  1  2  1  0
  2  3  1  0
  3  4  1  0
M  END
>  <Torsion_Angle>  (32) 
130

>  <Psi4_Energy (kcal/mol)>  (32) 
-118010.273049

>  <Psi4_Relative_Energy (kcal/mol)>  (32) 
0.733978

$$$$
CT1001084283_Deg140
     RDKit          3D

  4  3  0  0  0  0  0  0  0  0999 V2000
   -0.0187    1.5258    0.0104 C   0  0  0  0  0  0  0  0  0  0  0  0
    0.0021   -0.0041    0.0020 C   0  0  0  0  0  0  0  0  0  0  0  0
   -1.4333   -0.5336    0.0129 C   0  0  0  0  0  0  0  0  0  0  0  0
   -1.5313   -1.6621   -0.8583 O   0  0  0  0  0  0  0  0  0  0  0  0
  1  2  1  0
  2  3  1  0
  3  4  1  0
M  END
>  <Torsion_Angle>  (33) 
140

>  <Psi4_Energy (kcal/mol)>  (33) 
-118010.685804

>  <Psi4_Relative_Energy (kcal/mol)>  (33) 
0.321222

$$$$
CT1001084283_Deg150
     RDKit          3D

  4  3  0  0  0  0  0  0  0  0999 V2000
   -0.0187    1.5258    0.0104 C   0  0  0  0  0  0  0  0  0  0  0  0
    0.0021   -0.0041    0.0020 C   0  0  0  0  0  0  0  0  0  0  0  0
   -1.4333   -0.5336    0.0129 C   0  0  0  0  0  0  0  0  0  0  0  0
   -1.4828   -1.7895   -0.6671 O   0  0  0  0  0  0  0  0  0  0  0  0
  1  2  1  0
  2  3  1  0
  3  4  1  0
M  END
>  <Torsion_Angle>  (34) 
150

>  <Psi4_Energy (kcal/mol)>  (34) 
-118010.895216

>  <Psi4_Relative_Energy (kcal/mol)>  (34) 
0.111810

$$$$
CT1001084283_Deg160
     RDKit          3D

  4  3  0  0  0  0  0  0  0  0999 V2000
   -0.0187    1.5258    0.0104 C   0  0  0  0  0  0  0  0  0  0  0  0
    0.0021   -0.0041    0.0020 C   0  0  0  0  0  0  0  0  0  0  0  0
   -1.4333   -0.5336    0.0129 C   0  0  0  0  0  0  0  0  0  0  0  0
   -1.4464   -1.8838   -0.4551 O   0  0  0  0  0  0  0  0  0  0  0  0
  1  2  1  0
  2  3  1  0
  3  4  1  0
M  END
>  <Torsion_Angle>  (35) 
160

>  <Psi4_Energy (kcal/mol)>  (35) 
-118010.980214

>  <Psi4_Relative_Energy (kcal/mol)>  (35) 
0.026812

$$$$
CT1001084283_Deg170
     RDKit          3D

  4  3  0  0  0  0  0  0  0  0999 V2000
   -0.0187    1.5258    0.0104 C   0  0  0  0  0  0  0  0  0  0  0  0
    0.0021   -0.0041    0.0020 C   0  0  0  0  0  0  0  0  0  0  0  0
   -1.4333   -0.5336    0.0129 C   0  0  0  0  0  0  0  0  0  0  0  0
   -1.4232   -1.9420   -0.2287 O   0  0  0  0  0  0  0  0  0  0  0  0
  1  2  1  0
  2  3  1  0
  3  4  1  0
M  END
>  <Torsion_Angle>  (36) 
170

>  <Psi4_Energy (kcal/mol)>  (36) 
-118011.003870

>  <Psi4_Relative_Energy (kcal/mol)>  (36) 
0.003156

$$$$
CT1001084283_Deg180
     RDKit          3D

  4  3  0  0  0  0  0  0  0  0999 V2000
   -0.0187    1.5258    0.0104 C   0  0  0  0  0  0  0  0  0  0  0  0
    0.0021   -0.0041    0.0020 C   0  0  0  0  0  0  0  0  0  0  0  0
   -1.4333   -0.5336    0.0129 C   0  0  0  0  0  0  0  0  0  0  0  0
   -1.4139   -1.9625    0.0051 O   0  0  0  0  0  0  0  0  0  0  0  0
  1  2  1  0
  2  3  1  0
  3  4  1  0
M  END
>  <Torsion_Angle>  (37) 
180

>  <Psi4_Energy (kcal/mol)>  (37) 
-118011.007026

>  <Psi4_Relative_Energy (kcal/mol)>  (37) 
0.000000

$$$$
